k23/sourcebus_22000.trafo_75612682_75612682/Loads.dss
New Load.75618789_nmi_elem_75618789 bus1=3102510.3 kV=0.23094010767585033 Vminpu=0.7 Vmaxpu=1.3 model=1 kW=0.0 kvar=0.0 Phases=1
New Load.75619279_nmi_elem_75619279 bus1=3100641.1.2.3 kV=0.4 Vminpu=0.7 Vmaxpu=1.3 model=1 kW=0.0 kvar=0.0 Phases=3
New Load.75619284_nmi_elem_75619284 bus1=3099117.1.2.3 kV=0.4 Vminpu=0.7 Vmaxpu=1.3 model=1 kW=0.0 kvar=0.0 Phases=3
New Load.75619309_nmi_elem_75619309 bus1=3101760.1.2.3 kV=0.4 Vminpu=0.7 Vmaxpu=1.3 model=1 kW=0.0 kvar=0.0 Phases=3
New Load.75619318_nmi_elem_75619318 bus1=3102657.2 kV=0.23094010767585033 Vminpu=0.7 Vmaxpu=1.3 model=1 kW=0.0 kvar=0.0 Phases=1
New Load.75619552_nmi_elem_75619552 bus1=3102732.3 kV=0.23094010767585033 Vminpu=0.7 Vmaxpu=1.3 model=1 kW=0.0 kvar=0.0 Phases=1
New Load.NMI_elem_75613622 bus1=3102507.2 kV=0.23094010767585033 Vminpu=0.7 Vmaxpu=1.3 model=1 kW=2.8110811438606986 kvar=0.5708143720058579 Phases=1
New Load.NMI_elem_75613623 bus1=3102508.1 kV=0.23094010767585033 Vminpu=0.7 Vmaxpu=1.3 model=1 kW=2.7587762664132898 kvar=0.5601934136467613 Phases=1
New Load.NMI_elem_75613624 bus1=3102509.1 kV=0.23094010767585033 Vminpu=0.7 Vmaxpu=1.3 model=1 kW=3.410762257278735 kvar=0.6925848157040327 Phases=1
New Load.NMI_elem_75613625 bus1=3102510.3 kV=0.23094010767585033 Vminpu=0.7 Vmaxpu=1.3 model=1 kW=3.4727980265214424 kvar=0.705181715917857 Phases=1
New Load.NMI_elem_75613626 bus1=3102511.3 kV=0.23094010767585033 Vminpu=0.7 Vmaxpu=1.3 model=1 kW=3.8644762816346208 kvar=0.7847153778006027 Phases=1
New Load.NMI_elem_75614025 bus1=3102632.2 kV=0.23094010767585033 Vminpu=0.7 Vmaxpu=1.3 model=1 kW=1.1348933866321027 kvar=0.23044993105190384 Phases=1
New Load.NMI_elem_75614026 bus1=3102633.3 kV=0.23094010767585033 Vminpu=0.7 Vmaxpu=1.3 model=1 kW=1.937711912457348 kvar=0.39346918563814387 Phases=1
New Load.NMI_elem_75614027 bus1=3102634.3 kV=0.23094010767585033 Vminpu=0.7 Vmaxpu=1.3 model=1 kW=1.1482736528610034 kvar=0.2331669099912708 Phases=1
New Load.NMI_elem_75614028 bus1=3102635.1 kV=0.23094010767585033 Vminpu=0.7 Vmaxpu=1.3 model=1 kW=1.2796440562177687 kvar=0.2598428081438444 Phases=1
New Load.NMI_elem_75614029 bus1=3102636.3 kV=0.23094010767585033 Vminpu=0.7 Vmaxpu=1.3 model=1 kW=1.5740107252826023 kvar=0.3196165096994427 Phases=1
New Load.NMI_elem_75614030 bus1=3102637.1 kV=0.23094010767585033 Vminpu=0.7 Vmaxpu=1.3 model=1 kW=2.084895188987692 kvar=0.4233560246381198 Phases=1
New Load.NMI_elem_75614031 bus1=3102638.2 kV=0.23094010767585033 Vminpu=0.7 Vmaxpu=1.3 model=1 kW=1.9693381228210907 kvar=0.39989116155553467 Phases=1
New Load.NMI_elem_75614032 bus1=3102639.3 kV=0.23094010767585033 Vminpu=0.7 Vmaxpu=1.3 model=1 kW=1.552115754726597 kvar=0.31517054630371927 Phases=1
New Load.NMI_elem_75614033 bus1=3102640.3 kV=0.23094010767585033 Vminpu=0.7 Vmaxpu=1.3 model=1 kW=2.1797738200789194 kvar=0.44262195239029223 Phases=1
New Load.NMI_elem_75614034 bus1=3102641.1 kV=0.23094010767585033 Vminpu=0.7 Vmaxpu=1.3 model=1 kW=0.0672593020271037 kvar=0.01365758378480164 Phases=1
New Load.NMI_elem_75614035 bus1=3101212.1.2.3 kV=0.4 Vminpu=0.7 Vmaxpu=1.3 model=1 kW=2.7332319214236818 kvar=0.5550064131663986 Phases=3
New Load.NMI_elem_75614063 bus1=3099144.1.2.3 kV=0.4 Vminpu=0.7 Vmaxpu=1.3 model=1 kW=1.7941776623481682 kvar=0.3643233130558676 Phases=3
New Load.NMI_elem_75614064 bus1=3102648.3 kV=0.23094010767585033 Vminpu=0.7 Vmaxpu=1.3 model=1 kW=4.076128166360642 kvar=0.8276931260337314 Phases=1
New Load.NMI_elem_75614065 bus1=3099793.1.2.3 kV=0.4 Vminpu=0.7 Vmaxpu=1.3 model=1 kW=2.4850881484279763 kvar=0.5046186709772221 Phases=3
New Load.NMI_elem_75614066 bus1=3100202.1.2.3 kV=0.4 Vminpu=0.7 Vmaxpu=1.3 model=1 kW=1.9090193650643545 kvar=0.38764291539434487 Phases=3
New Load.NMI_elem_75614067 bus1=3102649.3 kV=0.23094010767585033 Vminpu=0.7 Vmaxpu=1.3 model=1 kW=1.131244244206793 kvar=0.22970894107855772 Phases=1
New Load.NMI_elem_75614106 bus1=3099703.1.2.3 kV=0.4 Vminpu=0.7 Vmaxpu=1.3 model=1 kW=4.76947149139342 kvar=0.9684824929744144 Phases=3
New Load.NMI_elem_75614107 bus1=3100553.1.2.3 kV=0.4 Vminpu=0.7 Vmaxpu=1.3 model=1 kW=2.095842732267768 kvar=0.4255790181138048 Phases=3
New Load.NMI_elem_75614108 bus1=3099183.1.2.3 kV=0.4 Vminpu=0.7 Vmaxpu=1.3 model=1 kW=2.435216109933538 kvar=0.49449172163745403 Phases=3
New Load.NMI_elem_75614109 bus1=3100052.1.2.3 kV=0.4 Vminpu=0.7 Vmaxpu=1.3 model=1 kW=4.767038652440451 kvar=0.9679884839550862 Phases=3
New Load.NMI_elem_75614110 bus1=3099319.1.2.3 kV=0.4 Vminpu=0.7 Vmaxpu=1.3 model=1 kW=4.653914193218527 kvar=0.9450175827805363 Phases=3
New Load.NMI_elem_75614111 bus1=3099556.1.2.3 kV=0.4 Vminpu=0.7 Vmaxpu=1.3 model=1 kW=4.073695791424256 kvar=0.8271992112369893 Phases=3
New Load.NMI_elem_75614112 bus1=3102652.1 kV=0.23094010767585033 Vminpu=0.7 Vmaxpu=1.3 model=1 kW=3.663771708180382 kvar=0.7439605759318659 Phases=1
New Load.NMI_elem_75614113 bus1=3100343.1.2.3 kV=0.4 Vminpu=0.7 Vmaxpu=1.3 model=1 kW=3.3098015288050813 kvar=0.6720838654035391 Phases=3
New Load.NMI_elem_75614114 bus1=3101004.1.2.3 kV=0.4 Vminpu=0.7 Vmaxpu=1.3 model=1 kW=3.35480812140187 kvar=0.6812228438159434 Phases=3
New Load.NMI_elem_75614115 bus1=3100641.1.2.3 kV=0.4 Vminpu=0.7 Vmaxpu=1.3 model=1 kW=4.009226719211994 kvar=0.8141082077812503 Phases=3
New Load.NMI_elem_75614116 bus1=3099182.1.2.3 kV=0.4 Vminpu=0.7 Vmaxpu=1.3 model=1 kW=3.5737585229868047 kvar=0.7256826191070574 Phases=3
New Load.NMI_elem_75614117 bus1=3100191.1.2.3 kV=0.4 Vminpu=0.7 Vmaxpu=1.3 model=1 kW=1.7406564814284198 kvar=0.3534553737427534 Phases=3
New Load.NMI_elem_75614118 bus1=3102653.2 kV=0.23094010767585033 Vminpu=0.7 Vmaxpu=1.3 model=1 kW=3.330480195888747 kvar=0.6762828478452448 Phases=1
New Load.NMI_elem_75614119 bus1=3101542.1.2.3 kV=0.4 Vminpu=0.7 Vmaxpu=1.3 model=1 kW=2.162744411424709 kvar=0.4391639834775792 Phases=3
New Load.NMI_elem_75614120 bus1=3099117.1.2.3 kV=0.4 Vminpu=0.7 Vmaxpu=1.3 model=1 kW=4.820560181372638 kvar=0.9788564939351401 Phases=3
New Load.NMI_elem_75614139 bus1=3102656.1.2.3 kV=0.4 Vminpu=0.7 Vmaxpu=1.3 model=1 kW=10.946308067927772 kvar=2.2227426551606073 Phases=3
New Load.NMI_elem_75614140 bus1=3101277.1.2.3 kV=0.4 Vminpu=0.7 Vmaxpu=1.3 model=1 kW=3.104231509453194 kvar=0.6303410926074385 Phases=3
New Load.NMI_elem_75614141 bus1=3100603.1.2.3 kV=0.4 Vminpu=0.7 Vmaxpu=1.3 model=1 kW=2.8512220585515466 kvar=0.5789653323796052 Phases=3
New Load.NMI_elem_75614142 bus1=3099848.1.2.3 kV=0.4 Vminpu=0.7 Vmaxpu=1.3 model=1 kW=2.5227962241658526 kvar=0.512275622331641 Phases=3
New Load.NMI_elem_75614143 bus1=3099578.1.2.3 kV=0.4 Vminpu=0.7 Vmaxpu=1.3 model=1 kW=2.0106954569884237 kvar=0.40828912643894627 Phases=3
New Load.NMI_elem_75614144 bus1=3100739.1.2.3 kV=0.4 Vminpu=0.7 Vmaxpu=1.3 model=1 kW=0.7322677622450676 kvar=0.14869331102694283 Phases=3
New Load.NMI_elem_75614145 bus1=3101760.1.2.3 kV=0.4 Vminpu=0.7 Vmaxpu=1.3 model=1 kW=3.1304196501588177 kvar=0.6356588213836174 Phases=3
New Load.NMI_elem_75614146 bus1=3101181.1.2.3 kV=0.4 Vminpu=0.7 Vmaxpu=1.3 model=1 kW=6.783816206811301 kvar=1.3775126329423535 Phases=3
New Load.NMI_elem_75614147 bus1=3101372.1.2.3 kV=0.4 Vminpu=0.7 Vmaxpu=1.3 model=1 kW=5.114926734433326 kvar=1.0386301719350919 Phases=3
New Load.NMI_elem_75614148 bus1=3101192.1.2.3 kV=0.4 Vminpu=0.7 Vmaxpu=1.3 model=1 kW=4.280481998244338 kvar=0.8691889414314612 Phases=3
New Load.NMI_elem_75614149 bus1=3101523.1.3 kV=0.4 Vminpu=0.7 Vmaxpu=1.3 model=1 kW=2.9996217545583757 kvar=0.6090991758892453 Phases=2
New Load.NMI_elem_75614150 bus1=3099449.1.2.3 kV=0.4 Vminpu=0.7 Vmaxpu=1.3 model=1 kW=1.0923196329882847 kvar=0.22180496165882813 Phases=3
New Load.NMI_elem_75614151 bus1=3099927.1.2.3 kV=0.4 Vminpu=0.7 Vmaxpu=1.3 model=1 kW=4.380226075233213 kvar=0.889442840110997 Phases=3
New Load.NMI_elem_75614152 bus1=3099928.1.2.3 kV=0.4 Vminpu=0.7 Vmaxpu=1.3 model=1 kW=4.258586911684185 kvar=0.8647429544800909 Phases=3
New Load.NMI_elem_75614153 bus1=3101569.1.2.3 kV=0.4 Vminpu=0.7 Vmaxpu=1.3 model=1 kW=1.7224105372935783 kvar=0.3497503767647295 Phases=3
New Load.NMI_elem_75614154 bus1=3102657.2 kV=0.23094010767585033 Vminpu=0.7 Vmaxpu=1.3 model=1 kW=4.209931524674524 kvar=0.8548630567612799 Phases=1
New Load.NMI_elem_75614155 bus1=3101727.1.2.3 kV=0.4 Vminpu=0.7 Vmaxpu=1.3 model=1 kW=4.983556679088999 kvar=1.0119543444494579 Phases=3
New Load.NMI_elem_75614156 bus1=3100154.1.2.3 kV=0.4 Vminpu=0.7 Vmaxpu=1.3 model=1 kW=4.599176940834733 kvar=0.9339027096246973 Phases=3
New Load.NMI_elem_75614385 bus1=3099080.1.2.3 kV=0.4 Vminpu=0.7 Vmaxpu=1.3 model=1 kW=4.456858878193745 kvar=0.9050037944407923 Phases=3
New Load.NMI_elem_75614386 bus1=3101178.1.2.3 kV=0.4 Vminpu=0.7 Vmaxpu=1.3 model=1 kW=2.460760222914853 kvar=0.4996786750065237 Phases=3
New Load.NMI_elem_75614387 bus1=3101818.2 kV=0.23094010767585033 Vminpu=0.7 Vmaxpu=1.3 model=1 kW=2.454678357540719 kvar=0.4984436995694956 Phases=1
New Load.NMI_elem_75614388 bus1=3102732.3 kV=0.23094010767585033 Vminpu=0.7 Vmaxpu=1.3 model=1 kW=6.033302326425172 kvar=1.2251142896039169 Phases=1
New Load.NMI_elem_75614389 bus1=3100350.1.2.3 kV=0.4 Vminpu=0.7 Vmaxpu=1.3 model=1 kW=3.1304196501588177 kvar=0.6356588213836174 Phases=3
New Load.NMI_elem_75616709 bus1=3102879.3 kV=0.23094010767585033 Vminpu=0.7 Vmaxpu=1.3 model=1 kW=1.8562136635991675 kvar=0.3769202603809849 Phases=1
New Load.NMI_elem_75616759 bus1=3102888.3 kV=0.23094010767585033 Vminpu=0.7 Vmaxpu=1.3 model=1 kW=1.677404060700935 kvar=0.3406114219079717 Phases=1
New Load.NMI_elem_75616760 bus1=3102889.3 kV=0.23094010767585033 Vminpu=0.7 Vmaxpu=1.3 model=1 kW=1.6409122884353975 kvar=0.3332014515075705 Phases=1
New Load.NMI_elem_75616827 bus1=3102904.3 kV=0.23094010767585033 Vminpu=0.7 Vmaxpu=1.3 model=1 kW=1.5217059638393395 kvar=0.30899557489599266 Phases=1
New Load.NMI_elem_75617864 bus1=3103185.2 kV=0.23094010767585033 Vminpu=0.7 Vmaxpu=1.3 model=1 kW=2.6832168429932723 kvar=0.5448504183288149 Phases=1
